10
Au10
Au 25.900541 24.900953 1.379948
Au 28.011953 27.299238 2.036433
Au 29.419198 29.404024 2.092417
Au 27.875688 29.082417 0.147677
Au 26.102432 27.157311 0.352303
Au 24.225515 22.969201 1.210931
Au 23.084063 20.844762 2.376890
Au 22.382633 19.168175 0.460220
Au 24.569892 18.694683 1.802444
Au 25.730551 21.047443 2.185519