10
Au10
Au 25.874593 24.406562 1.382590
Au 27.473337 26.513143 1.722037
Au 28.559545 28.764057 2.092585
Au 26.732180 28.639055 0.357672
Au 25.024338 26.738651 0.734407
Au 23.413384 23.653939 1.051463
Au 22.581123 21.423854 2.311975
Au 22.047952 19.482593 0.662330
Au 24.370792 19.473014 1.771564
Au 25.199890 21.923332 2.092418