10
Au10
Au 25.783793 24.700733 1.233266
Au 28.279767 27.564383 1.654938
Au 29.055427 29.932149 2.035003
Au 27.009550 29.541818 0.608208
Au 25.886599 27.188645 0.701234
Au 23.868260 23.003048 1.212280
Au 22.897272 20.807781 2.375743
Au 22.247613 19.113960 0.522072
Au 24.509936 18.791981 1.782150
Au 25.540379 21.195263 2.214414