10
Au10
Au 25.508547 25.146629 1.270188
Au 27.156958 27.061720 1.844961
Au 28.814010 28.986085 2.071316
Au 26.906279 29.300313 0.479169
Au 25.271933 27.367409 0.066409
Au 23.961771 23.064609 1.279207
Au 22.608176 20.508980 2.368690
Au 22.138476 18.774059 0.404806
Au 24.379361 18.677797 1.661420
Au 25.219415 21.061150 2.330674