10
Au10
Au 26.047009 24.111935 1.192974
Au 27.375599 26.412682 1.595195
Au 27.939415 28.819982 2.122685
Au 26.443989 28.410269 0.155362
Au 24.844544 26.412627 0.772476
Au 23.435072 24.204562 1.422284
Au 22.930482 21.707731 1.925683
Au 22.960141 19.631015 0.372024
Au 24.360142 19.389637 2.411307
Au 25.672688 21.619115 2.004097