10
Au10
Au 26.183559 24.599010 1.042431
Au 27.874357 26.631499 1.559018
Au 27.881616 29.071230 2.270186
Au 24.415451 18.497142 2.232015
Au 25.312907 27.144370 1.166249
Au 23.665860 25.162687 0.766657
Au 23.115468 20.806740 1.999168
Au 22.597538 18.780514 0.530240
Au 24.483163 22.650571 0.614097
Au 25.676626 20.669744 1.770851